49
Li1 H30 C12 O6
Li 4.002041 49.409537 26.000731
O 2.387237 50.082312 27.264265
C 1.812094 51.373308 27.306012
C 2.369157 49.430789 28.521820
C 2.686401 47.975306 28.303321
O 3.871682 47.882763 27.538319
C 4.263524 46.538478 27.321285
H 1.853498 51.783288 26.298755
H 2.362254 52.032971 27.986533
H 1.379493 49.517995 28.983437
H 3.102531 49.895027 29.191972
H 1.863760 47.479789 27.772434
H 2.812966 47.478974 29.272487
H 4.450481 46.035334 28.275130
H 5.175485 46.559547 26.729675
H 3.486743 45.991396 26.775181
H 0.768934 51.319410 27.632387
O 5.657678 50.421729 26.923396
C 5.568779 51.014298 28.203771
C 6.813284 49.615919 26.784248
C 6.858624 49.090351 25.375472
O 5.658094 48.380264 25.134033
C 5.713368 47.570571 23.975849
H 6.438831 51.650075 28.395861
H 5.506058 50.248695 28.984933
H 6.768475 48.784348 27.498974
H 7.714921 50.204752 26.987746
H 7.723759 48.426622 25.266758
H 6.954642 49.912078 24.655151
H 5.944780 48.169001 23.087684
H 4.735668 47.105769 23.858691
H 6.477505 46.794761 24.087147
H 4.668078 51.626769 28.220171
O 3.872603 51.068251 24.611316
C 4.228947 52.423013 24.809427
C 2.886720 50.888458 23.613247
C 2.835204 49.413149 23.294186
O 2.627234 48.632066 24.460954
C 1.257069 48.447922 24.776773
H 4.664758 52.842857 23.897373
H 4.965093 52.446444 25.610196
H 3.149917 51.444934 22.706062
H 1.917900 51.263195 23.970070
H 3.795935 49.104800 22.879696
H 2.056931 49.211422 22.551566
H 1.209313 47.804623 25.652801
H 0.738850 47.963814 23.943768
H 0.763854 49.396582 25.009593
H 3.357336 53.024292 25.091745