49
Li1 H30 C12 O6
Li 6.596560 24.736842 36.489039
O 6.348038 22.918155 37.620143
C 6.443803 21.601032 37.108322
C 5.391499 23.028607 38.657711
C 5.506333 24.398019 39.276273
O 5.503179 25.363736 38.241557
C 5.416647 26.688458 38.734895
H 5.464106 21.235177 36.780828
H 6.835714 20.920773 37.870897
H 5.570216 22.269556 39.427804
H 4.386312 22.870768 38.248708
H 6.432384 24.484897 39.857369
H 4.660742 24.558524 39.954846
H 5.520466 27.357887 37.883404
H 6.216929 26.891770 39.455377
H 4.452148 26.852885 39.225358
H 7.119074 21.633728 36.255878
O 4.782462 24.672268 35.289084
C 3.707669 23.811460 35.608827
C 4.359459 26.009729 35.100609
C 5.547618 26.820602 34.661543
O 6.558361 26.692422 35.643254
C 7.700684 27.476979 35.353828
H 2.967593 23.802889 34.802562
H 3.220206 24.126159 36.538183
H 3.949655 26.401681 36.040308
H 3.578554 26.059455 34.333196
H 5.254094 27.870568 34.547763
H 5.922053 26.458662 33.695366
H 8.124693 27.202221 34.381090
H 8.433496 27.282346 36.133475
H 7.441663 28.540378 35.339473
H 4.115138 22.808981 35.731116
O 8.631060 25.002435 37.206222
C 8.917328 25.182577 38.578747
C 9.413502 23.976676 36.624108
C 9.121703 23.944473 35.148815
O 7.730358 23.753927 34.976191
C 7.359095 23.647582 33.614207
H 9.968021 25.453603 38.721482
H 8.704006 24.268928 39.144469
H 9.164334 23.014623 37.089871
H 10.480169 24.173295 36.781353
H 9.681869 23.126413 34.681349
H 9.427645 24.887449 34.677851
H 7.651841 24.546695 33.059621
H 6.277229 23.540773 33.581135
H 7.835938 22.776621 33.153476
H 8.286472 25.992818 38.941416