16
Li1 H10 O5
Li 0.655359 -1.356646 0.490274
H 1.073404 1.324316 0.154190
H -1.493756 -1.917765 -0.550214
H 1.326275 -1.870305 2.787896
H 1.423113 -4.086294 0.616473
H 1.035626 -2.187757 -2.206009
O 0.525088 -1.638515 -1.606304
H 0.641328 -0.727091 -1.896522
O 0.912477 -3.404088 1.059060
H -0.016098 -3.623673 0.917941
O 0.979044 -1.032579 2.464782
H 1.466071 -0.338001 2.913927
O -1.355560 -1.927414 0.403611
H -2.156022 -1.581938 0.805793
O 0.419606 0.665210 -0.094530
H -0.435005 1.066909 0.085613