48
Mg1 H20 C10 S2 N1 O8 F6
Mg 14.986723 6.127016 17.512987
O 14.465841 8.149185 17.475439
C 13.393026 8.858715 18.100367
C 15.081269 8.896474 16.420845
C 16.417861 8.269958 16.130096
O 16.211854 6.862900 15.978293
C 17.376706 6.190898 15.485759
H 13.782773 9.747243 18.598191
H 12.939555 8.196026 18.831966
H 15.222032 9.931689 16.738213
H 14.426989 8.874935 15.544270
H 17.122236 8.440546 16.950060
H 16.829198 8.686538 15.208232
H 17.656830 6.613798 14.520143
H 17.121527 5.141091 15.369205
H 18.201679 6.301243 16.193970
H 12.651041 9.151104 17.353744
O 13.351725 5.417145 16.467371
C 12.342751 6.218428 15.847452
C 13.626630 4.213423 15.741862
C 14.486825 3.342602 16.616776
O 15.564236 4.153210 17.100481
C 16.578803 3.387242 17.759459
H 11.429324 5.632711 15.740471
H 12.683045 6.563300 14.867874
H 14.132901 4.471326 14.806533
H 12.690154 3.700058 15.514292
H 14.886449 2.510972 16.032579
H 13.923608 2.958085 17.470447
H 17.000205 2.665683 17.057857
H 16.156658 2.864482 18.620837
H 17.353043 4.077577 18.086101
H 12.150880 7.067199 16.498564
N 14.482676 5.687504 19.678285
S 13.437810 4.735413 20.461410
O 12.963948 3.730819 19.567569
O 13.866159 4.403111 21.777579
C 12.014062 5.891840 20.664301
F 12.378335 6.966771 21.353352
F 11.048693 5.260149 21.312424
F 11.560087 6.277989 19.472905
S 15.957304 6.010862 20.163540
O 16.575893 6.479305 18.928938
O 16.625629 5.029264 20.939561
C 15.861011 7.518005 21.229495
F 17.091978 7.910466 21.515147
F 15.226632 8.491316 20.587051
F 15.211907 7.232051 22.345509