63
Mg1 H20 C12 S4 N2 O12 F12
Mg 14.977312 12.202557 33.021262
O 15.567214 11.392518 31.147752
C 14.612910 10.822785 30.244685
C 16.472273 12.279882 30.491288
C 17.509892 12.703299 31.496684
O 16.826141 13.142378 32.670589
C 17.660186 13.885855 33.560970
H 15.139057 10.277089 29.459507
H 13.986419 11.606562 29.812601
H 15.916135 13.143942 30.115799
H 16.952187 11.769026 29.653025
H 18.106287 13.521700 31.086294
H 18.175699 11.874647 31.758797
H 18.532009 13.291029 33.846316
H 17.072669 14.119908 34.444012
H 17.986198 14.805596 33.072285
H 13.993169 10.139794 30.820162
O 15.796164 10.525133 34.027795
C 17.181173 10.189855 34.072299
C 14.950242 9.378404 33.975816
C 13.531963 9.856488 34.134455
O 13.325543 10.909083 33.188289
C 11.965633 11.357422 33.144564
H 17.374298 9.553790 34.936813
H 17.737370 11.117669 34.186628
H 15.204222 8.695078 34.789919
H 15.095569 8.866643 33.017795
H 13.354372 10.239063 35.143861
H 12.838310 9.037700 33.929664
H 11.714986 11.887027 34.066872
H 11.306595 10.496878 33.018660
H 11.869501 12.016716 32.285208
H 17.476346 9.681273 33.150204
N 16.273143 12.574663 36.556258
S 16.737978 11.608919 37.728042
O 16.217738 11.948255 39.016134
O 16.744376 10.232481 37.332665
C 18.510316 12.115969 37.754340
F 19.132459 11.399788 38.686137
F 18.633035 13.404644 38.047424
F 19.091766 11.884430 36.578987
S 14.799756 12.894140 36.217798
O 13.806336 12.036291 36.783182
O 14.697264 13.170984 34.790736
C 14.493492 14.567243 36.931325
F 15.348665 15.446483 36.418504
F 13.255185 14.950203 36.652144
F 14.652131 14.525061 38.247278
N 12.340551 15.251121 30.873532
S 11.776574 14.332643 29.728712
O 11.876000 12.928317 29.996222
O 10.543667 14.867017 29.251270
C 12.962148 14.635301 28.349672
F 14.187393 14.221086 28.684229
F 13.020450 15.926785 28.048838
F 12.567526 13.958279 27.275638
S 13.194465 14.883414 32.109216
O 13.928617 13.627573 31.979553
O 12.533988 15.106194 33.351547
C 14.519625 16.162448 32.021327
F 13.995144 17.377187 32.060850
F 15.333882 16.006037 33.062538
F 15.225303 16.026442 30.902327