16
H10 C4 O2
O 1.711597 -0.527046 0.000122
C 2.967108 0.110410 0.000075
C 0.646476 0.391802 0.000165
C -0.646477 -0.391552 0.000211
O -1.711597 0.527296 0.000251
C -2.967108 -0.110160 0.000299
H 3.092195 0.738332 0.890695
H 3.092126 0.738337 -0.890550
H 0.691523 1.037335 -0.887730
H 0.691590 1.037330 0.888060
H -0.691524 -1.037083 0.888107
H -0.691589 -1.037082 -0.887682
H -3.092128 -0.738083 0.890927
H -3.092193 -0.738086 -0.890318
H -3.731485 0.665491 0.000325
H 3.731485 -0.665241 0.000043