32
H20 C8 O4
O 1.220956 -0.082916 -1.273941
C 2.301013 0.689364 -1.740759
C 0.347433 0.663533 -0.462722
C -0.764084 -0.250786 -0.000311
O -1.651649 0.510124 0.783751
C -2.729218 -0.253953 1.272321
H 2.896387 1.081859 -0.905855
H 1.951428 1.534012 -2.347816
H -0.077613 1.509469 -1.022506
H 0.883648 1.072411 0.406356
H -0.348168 -1.082785 0.583894
H -1.283185 -0.675331 -0.870384
H -2.376321 -1.071253 1.912712
H -3.315877 -0.681351 0.450172
H -3.364653 0.409183 1.857766
H 2.929359 0.045192 -2.353974
H 3.558163 3.221170 0.495112
H -2.678406 2.878420 0.030029
H 1.354932 3.463839 -0.469165
H -0.557207 2.898712 1.087348
C 1.086473 4.095228 0.390199
C -2.492923 3.912184 -0.285514
C 3.217718 3.859162 1.321004
C -0.379701 3.915075 0.712186
O -1.113097 4.137686 -0.469329
O 1.831223 3.726394 1.525581
H -2.986395 4.095036 -1.239201
H 3.718621 3.552335 2.237932
H 1.292188 5.138428 0.113988
H -0.685295 4.622447 1.495510
H 3.487564 4.897518 1.093218
H -2.906962 4.593705 0.467969