64
H40 C16 O8
O 1.743576 0.086830 -2.162785
C 2.725467 0.900909 -2.758888
C 0.796034 0.839608 -1.445313
C -0.156308 -0.122269 -0.772686
O -1.077383 0.630430 -0.021540
C -2.001329 -0.183490 0.663531
H 3.284090 1.463606 -1.998647
H 2.276643 1.614416 -3.461338
H 0.238849 1.508291 -2.116893
H 1.295321 1.464469 -0.690638
H 0.403401 -0.809122 -0.121985
H -0.675015 -0.727519 -1.528523
H -1.493554 -0.834486 1.385867
H -2.565572 -0.812839 -0.036307
H -2.696568 0.466123 1.195934
H 3.412478 0.251460 -3.299142
H 3.489404 3.900561 -1.722556
H -2.554719 2.926143 -0.052479
H 1.074440 3.788676 -1.904769
H -0.170108 3.090816 0.182785
C 1.025614 4.425997 -1.010074
C -2.546019 3.950067 -0.448594
C 3.355517 4.504947 -0.815468
C -0.226890 4.108792 -0.225045
O -1.325862 4.225535 -1.097229
O 2.136626 4.194975 -0.178456
H -3.345250 4.060388 -1.180261
H 4.162003 4.286570 -0.115535
H 1.006059 5.471463 -1.346873
H -0.327726 4.806821 0.617886
H 3.392677 5.564440 -1.097310
H -2.722421 4.650451 0.376715
H 2.469259 -1.071968 1.948418
O 3.815310 0.439307 1.991606
H 5.157415 2.396567 3.115836
C 2.662380 -0.135797 1.425654
H 1.792393 0.525053 1.539873
C 5.400824 2.183337 2.066199
H 6.203536 1.433421 2.052014
H 6.720087 4.232921 3.049305
C 4.181431 1.639946 1.355803
H 2.804710 -0.343301 0.356563
C 6.933796 3.950488 2.011464
H 7.792816 3.268763 2.003593
H 3.360240 2.369181 1.393158
O 5.809602 3.356785 1.405105
H 4.417735 1.459761 0.296299
H 7.182359 4.844702 1.441824
H -5.389376 5.324137 3.176342
H -5.073229 6.191998 1.652598
C -4.838846 5.297804 2.228295
H -5.451290 2.912924 3.070428
O -5.212530 4.181798 1.455146
H -3.764001 5.284823 2.450433
C -4.933250 2.965379 2.103244
H -6.478507 1.955174 1.004389
C -5.405568 1.841282 1.209561
H -3.854459 2.867526 2.294388
O -5.152389 0.625533 1.870822
H -6.672125 -0.455685 0.965317
H -4.874088 1.876097 0.247110
C -5.588069 -0.488408 1.126792
H -5.337335 -1.383228 1.694763
H -5.090476 -0.530969 0.149815