30
H20 O10
O -0.279515 1.489809 -0.239204
H 0.027047 0.593603 -0.400594
H -1.265199 1.446652 -0.191491
O -2.962210 1.520358 0.133646
H -3.149528 0.718137 0.661931
H -3.049764 2.245038 0.776050
O -2.820825 3.163394 2.497728
H -1.858917 2.953563 2.462330
H -3.224829 2.438003 3.008921
H 0.221564 2.102925 3.018412
O -0.148360 2.651630 2.308328
H -0.019646 2.170286 1.471498
H -2.703066 -1.252148 1.941362
O -3.407638 -0.603080 1.876732
H -3.445388 -0.155939 2.743445
H -0.871823 1.727063 5.462004
H -1.866298 2.920034 5.576392
O -1.755923 1.971128 5.781899
H -2.971716 1.242061 4.806921
O -3.646772 0.998220 4.128091
H -4.498619 0.986916 4.571961
H 0.348230 2.723794 -1.463793
O 0.695857 3.396374 -2.074807
H 0.126046 3.353896 -2.845444
O -2.387545 4.544223 4.902458
H -2.590739 4.271819 3.987354
H -1.725342 5.236343 4.834020
O 0.742116 1.233063 4.610541
H 0.874811 0.282616 4.541409
H 1.546164 1.581103 5.008071