41
H16 C17 S1 N2 O5
C -0.351157 -1.437039 0.487726
N 1.678471 -0.910343 0.570647
C 0.800056 -1.214770 -0.553826
C 2.766010 0.009584 0.353105
C 2.269383 1.092800 -0.693171
S 0.837912 0.274239 -1.622047
C 0.671137 -0.877679 1.521659
O 0.668604 -0.577287 2.683380
N -1.623212 -0.803194 0.330053
C 1.761973 2.322874 0.063257
C 3.327473 1.494165 -1.724939
O 5.215157 -0.333346 0.181252
C 5.430164 0.716001 1.149282
C 3.987372 -0.759858 -0.154757
O 3.874918 -1.713502 -0.882929
C -3.387071 0.682470 0.297558
C -4.209050 1.788452 0.400194
C -5.538590 1.638037 -0.001382
C -6.012716 0.416578 -0.484832
C -5.172970 -0.695289 -0.583220
C -3.859411 -0.534131 -0.184162
H -3.834245 2.731275 0.776906
H -6.214436 2.481652 0.062625
H -7.048761 0.331885 -0.787961
H -5.532998 -1.645431 -0.955924
C -1.948318 0.531414 0.638728
O -1.189532 1.349420 1.098979
C -2.739162 -1.506793 -0.166730
O -2.724949 -2.670454 -0.495482
H 1.024432 2.052305 0.815434
H 1.297994 3.029164 -0.626624
H 2.601546 2.828634 0.550411
H 2.904370 2.214434 -2.426470
H 3.688979 0.639212 -2.294829
H 4.175787 1.979753 -1.236749
H -0.529410 -2.502058 0.639217
H 1.084764 -2.091824 -1.127537
H 2.973528 0.500467 1.300687
H 5.059346 0.418011 2.129993
H 6.507893 0.844797 1.191855
H 4.969039 1.651693 0.834300