41
H16 C17 S1 N2 O5
C -0.249699 -1.245963 0.712686
N 1.722680 -0.541795 0.872710
C 0.942897 -1.000247 -0.273929
C 2.742632 0.452846 0.639155
C 2.212548 1.413659 -0.498630
S 0.932413 0.399611 -1.457785
C 0.654517 -0.527318 1.758208
O 0.550929 -0.149742 2.891824
N -1.558856 -0.745673 0.428424
C 1.536532 2.626012 0.145907
C 3.302894 1.864817 -1.472252
O 3.969251 -1.260777 -0.455675
C 5.202147 -1.898734 -0.861170
C 4.092239 -0.168370 0.303026
O 5.144606 0.304236 0.659387
C -3.442408 0.559294 0.164452
C -4.367020 1.585539 0.130372
C -5.641774 1.283417 -0.354713
C -5.963346 -0.005629 -0.785368
C -5.020735 -1.035668 -0.745543
C -3.762728 -0.724605 -0.264512
H -4.109994 2.581590 0.466630
H -6.394556 2.060571 -0.398228
H -6.960400 -0.208051 -1.156034
H -5.262249 -2.037314 -1.076742
C -2.026753 0.569196 0.617683
O -1.384329 1.484181 1.071510
C -2.563020 -1.581531 -0.099615
O -2.416136 -2.756129 -0.348717
H 2.291592 3.240558 0.644931
H 0.784795 2.325134 0.872039
H 1.046862 3.237447 -0.613575
H 2.878761 2.530629 -2.225113
H 3.765612 1.023625 -1.988218
H 4.076728 2.416958 -0.933947
H -0.345668 -2.308933 0.936779
H 1.331259 -1.891913 -0.758190
H 2.889990 1.027837 1.551855
H 5.758454 -2.226732 0.015746
H 4.901199 -2.747957 -1.467335
H 5.808303 -1.204182 -1.441351