41
H16 C17 S1 N2 O5
C 0.420753 -1.551680 0.085277
N -1.656378 -1.266758 0.218266
C -0.593642 -1.201400 1.218320
C -2.806942 -0.440529 0.535035
C -2.270641 0.955938 1.001355
S -0.666622 0.505061 1.909842
C -0.778181 -1.291186 -0.872018
O -0.924932 -1.195970 -2.055335
N 1.650543 -0.836670 -0.065181
C -1.966608 1.884905 -0.174341
C -3.199865 1.629538 2.012230
O -4.757659 0.500331 -0.405385
C -5.853524 0.516734 -1.349334
C -3.862128 -0.479872 -0.565781
O -3.925999 -1.329388 -1.415530
C 3.910124 -0.372953 0.085805
C 5.269970 -0.392515 0.333975
C 6.015939 0.704358 -0.103273
C 5.406860 1.773602 -0.763959
C 4.031733 1.781418 -1.009658
C 3.303619 0.691567 -0.572043
H 5.734506 -1.225431 0.845581
H 7.084276 0.727730 0.071666
H 6.012550 2.609614 -1.090764
H 3.552082 2.605358 -1.521877
C 2.862812 -1.369595 0.417294
O 2.966858 -2.434383 0.982327
C 1.846889 0.414821 -0.683837
O 0.989874 1.088435 -1.199497
H -2.901098 2.204600 -0.639863
H -1.340445 1.403575 -0.921426
H -1.438990 2.772373 0.176958
H -2.736271 2.534493 2.408965
H -3.427879 0.967744 2.849044
H -4.131537 1.914384 1.522611
H 0.663701 -2.614532 0.119037
H -0.671007 -1.930972 2.021515
H -3.297349 -0.905593 1.398020
H -6.424312 -0.407935 -1.276085
H -6.462645 1.370223 -1.066444
H -5.471016 0.632821 -2.362320