41
H16 C17 S1 N2 O5
C -0.339737 0.428057 0.394184
N 1.392712 -0.292102 -0.563201
C 0.554569 0.886385 -0.793891
C 2.803879 -0.085567 -0.841036
C 3.172836 1.322531 -0.245625
S 1.656284 2.355388 -0.655455
C 0.595860 -0.805412 0.459715
O 0.606864 -1.814285 1.108324
N -1.743909 0.232205 0.210310
C 3.378958 1.284269 1.270687
C 4.390008 1.917423 -0.951111
O 3.441681 -1.712477 0.775175
C 4.338788 -2.720971 1.292119
C 3.773936 -1.163267 -0.384437
O 4.772806 -1.423630 -1.014813
C -4.029610 0.327917 0.503326
C -5.317287 0.597964 0.925948
C -6.361142 -0.033626 0.245131
C -6.107656 -0.901565 -0.818846
C -4.801687 -1.167272 -1.238230
C -3.776880 -0.537939 -0.557754
H -5.506132 1.271521 1.751762
H -7.384469 0.151541 0.546822
H -6.938223 -1.376334 -1.326029
H -4.597226 -1.839466 -2.061437
C -2.729933 0.835090 1.014965
O -2.506152 1.601375 1.922664
C -2.307015 -0.612636 -0.759979
O -1.668733 -1.240476 -1.573529
H 2.549232 0.797797 1.783122
H 3.469380 2.299969 1.655784
H 4.294887 0.742576 1.519844
H 4.596958 2.921571 -0.577708
H 4.240331 1.972024 -2.029649
H 5.267545 1.297412 -0.754047
H -0.199176 1.057774 1.271758
H 0.051550 0.893324 -1.758454
H 2.922258 -0.029646 -1.923555
H 4.441145 -3.532685 0.573559
H 5.315413 -2.281885 1.493150
H 3.874995 -3.072260 2.208647