41
H16 C17 S1 N2 O5
C 0.282693 -1.189605 0.873707
N -1.766352 -0.735879 0.809831
C -0.680681 -0.232257 1.647587
C -2.850637 0.209634 0.615474
C -2.215065 1.603717 0.307573
S -0.636985 1.587603 1.363651
C -0.923836 -1.389952 -0.089975
O -1.109886 -1.926866 -1.144484
N 1.550613 -0.740684 0.387860
C -1.847424 1.780563 -1.166062
C -3.110511 2.744323 0.790370
O -4.063076 -1.581800 -0.334638
C -5.091151 -2.128854 -1.191851
C -3.931430 -0.257137 -0.353103
O -4.631107 0.494077 -0.988270
C 3.835186 -0.397208 0.316168
C 5.194585 -0.360072 0.564520
C 5.997977 0.296655 -0.370390
C 5.444296 0.888780 -1.507740
C 4.068944 0.843580 -1.748329
C 3.283773 0.192193 -0.816339
H 5.615796 -0.822244 1.447856
H 7.067979 0.348439 -0.212493
H 6.093742 1.390885 -2.213888
H 3.632059 1.299175 -2.627459
C 2.735628 -1.006799 1.102943
O 2.783766 -1.616632 2.146809
C 1.812074 -0.018881 -0.794312
O 0.989089 0.325028 -1.605813
H -1.270615 0.940222 -1.543934
H -1.241442 2.678803 -1.290233
H -2.755283 1.889690 -1.760112
H -2.617443 3.707197 0.646332
H -3.359375 2.641281 1.847585
H -4.032701 2.744143 0.206324
H 0.459886 -2.091517 1.461189
H -0.786739 -0.438582 2.710405
H -3.368282 0.286861 1.578703
H -5.041600 -3.203894 -1.047733
H -6.067100 -1.741950 -0.901471
H -4.885126 -1.869104 -2.229149