41
H16 C17 S1 N2 O5
C 0.353944 0.152549 -0.596930
N -1.386437 -0.447957 0.428335
C -0.607979 0.799010 0.443592
C -2.835342 -0.369779 0.448556
C -3.174718 1.142844 0.748291
S -1.777804 2.110707 -0.047611
C -0.533533 -1.109363 -0.440062
O -0.544002 -2.220912 -0.894709
N 1.755904 0.078385 -0.330183
C -4.498046 1.612946 0.145824
C -3.169516 1.358341 2.266989
O -4.572512 -1.509460 -0.910882
C -5.168770 -2.062944 0.281169
C -3.423004 -0.815613 -0.900131
O -2.915214 -0.507918 -1.946600
C 4.043984 0.278452 -0.538835
C 5.333908 0.558491 -0.947749
C 6.375941 0.123001 -0.125228
C 6.118481 -0.566720 1.061214
C 4.810207 -0.843968 1.465578
C 3.787173 -0.409232 0.644682
H 5.525651 1.093000 -1.869077
H 7.401008 0.322400 -0.411496
H 6.947846 -0.891938 1.676753
H 4.602936 -1.378904 2.383285
C 2.745462 0.603908 -1.184162
O 2.524415 1.192247 -2.216116
C 2.315673 -0.545230 0.796023
O 1.673175 -1.063077 1.681153
H -5.330345 1.043845 0.565766
H -4.514403 1.511852 -0.938803
H -4.664218 2.661991 0.394613
H -3.299157 2.415678 2.497253
H -2.239216 1.018237 2.723950
H -3.992680 0.802661 2.725333
H 0.213202 0.572272 -1.592430
H -0.146275 1.006851 1.406469
H -3.231714 -0.969627 1.264030
H -6.031703 -2.621574 -0.070590
H -4.477772 -2.740773 0.782045
H -5.501112 -1.279115 0.961297