41
H16 C17 S1 N2 O5
C 0.340430 -0.425476 0.396404
N -1.391803 0.288150 -0.566228
C -0.554039 -0.892263 -0.788251
C -2.803032 0.080125 -0.842663
C -3.172516 -1.323539 -0.237150
S -1.656218 -2.359839 -0.639112
C -0.594759 0.808741 0.452848
O -0.605399 1.822405 1.093950
N 1.744644 -0.231390 0.210990
C -3.379044 -1.274176 1.278776
C -4.389731 -1.923178 -0.938525
O -3.440290 1.718812 0.761820
C -4.337078 2.731241 1.271584
C -3.772761 1.161377 -0.393790
O -4.771584 1.417485 -1.025985
C 3.777791 0.532164 -0.563157
C 4.802752 1.155810 -1.248620
C 6.108674 0.892871 -0.827346
C 6.361966 0.033133 0.243316
C 5.317958 -0.592755 0.929145
C 4.030331 -0.325523 0.504584
H 4.598450 1.821656 -2.077008
H 6.939361 1.363354 -1.338311
H 7.385261 -0.150082 0.546303
H 5.506646 -1.259965 1.760132
C 2.307927 0.605787 -0.765823
O 1.669764 1.227530 -1.584139
C 2.730538 -0.828328 1.020220
O 2.506595 -1.587529 1.933814
H -3.469887 -2.287019 1.671210
H -4.294913 -0.730442 1.523653
H -2.549377 -0.784183 1.787932
H -4.597228 -2.924384 -0.557593
H -4.239771 -1.985977 -2.016577
H -5.267041 -1.301303 -0.746389
H 0.199735 -1.048638 1.278627
H -0.051013 -0.906431 -1.752731
H -2.921407 0.016517 -1.924765
H -3.872775 3.089466 2.185161
H -4.439823 3.537464 0.546930
H -5.313601 2.293717 1.476505