41
H16 C17 S1 N2 O5
C 0.355131 -1.456616 0.395072
N -1.618769 -0.832128 -0.043727
C -0.767224 -0.666049 1.145861
C -2.450123 0.288743 -0.446764
C -2.357628 1.365693 0.695778
S -0.629794 1.135779 1.399793
C -0.631982 -1.430696 -0.808191
O -0.605344 -1.780439 -1.955708
N 1.638684 -0.855360 0.185458
C -2.485102 2.777481 0.129946
C -3.393159 1.122200 1.800500
O -4.294672 -1.212718 -0.225922
C -5.679958 -1.566517 -0.442073
C -3.902731 -0.052055 -0.749552
O -4.615734 0.693840 -1.380113
C 3.395249 0.408443 -0.613504
C 4.205440 1.305936 -1.282522
C 5.562087 1.316422 -0.949492
C 6.073609 0.452272 0.021012
C 5.245437 -0.451153 0.691159
C 3.904971 -0.452396 0.353916
H 3.801530 1.971668 -2.034096
H 6.229816 2.005347 -1.451536
H 7.130032 0.484181 0.256429
H 5.634466 -1.124597 1.443779
C 1.935010 0.165323 -0.742900
O 1.134733 0.697877 -1.472281
C 2.789334 -1.280470 0.876397
O 2.804619 -2.151319 1.715715
H -2.394894 3.518940 0.925643
H -3.467095 2.891907 -0.333338
H -1.720651 2.974139 -0.622509
H -3.226138 1.816565 2.623316
H -3.341440 0.105480 2.191298
H -4.403736 1.289990 1.417963
H 0.513188 -2.450108 0.812727
H -1.150739 -1.162898 2.034771
H -2.042950 0.713882 -1.365843
H -6.330526 -0.821920 0.015370
H -5.888044 -1.628956 -1.509166
H -5.807208 -2.534557 0.033345