41
H16 C17 S1 N2 O5
C -0.406333 0.730442 0.400902
N 1.376089 -0.384806 0.314355
C 0.654834 0.386983 -0.696884
C 2.817381 -0.333737 0.317580
C 3.203411 1.136486 -0.107591
S 1.833787 1.669310 -1.283659
C 0.490678 -0.119018 1.341434
O 0.500516 -0.399625 2.511128
N -1.777892 0.374032 0.216892
C 3.199964 2.030709 1.137328
C 4.538928 1.243476 -0.844514
O 4.506174 -2.029645 -0.348700
C 5.138632 -1.925654 0.944495
C 3.366919 -1.385688 -0.650657
O 2.820269 -1.620899 -1.697843
C -3.718558 -0.830348 -0.099085
C -4.668669 -1.813996 -0.296790
C -6.002527 -1.408074 -0.385885
C -6.355495 -0.061348 -0.278852
C -5.386629 0.925145 -0.078861
C -4.070466 0.512846 0.007749
H -4.387235 -2.855817 -0.378291
H -6.776875 -2.148949 -0.540581
H -7.398151 0.221429 -0.352085
H -5.652548 1.970825 0.005372
C -2.243201 -0.939813 0.035518
O -1.533563 -1.918117 0.004119
C -2.832319 1.307789 0.213484
O -2.697518 2.500760 0.354688
H 3.334632 3.074455 0.852882
H 4.018122 1.748710 1.806922
H 2.264359 1.952030 1.691623
H 4.562509 0.625315 -1.741197
H 5.359950 0.948555 -0.187003
H 4.719819 2.277664 -1.141202
H -0.366812 1.781046 0.685553
H 0.290682 -0.197710 -1.537050
H 3.154617 -0.510847 1.336019
H 4.469928 -2.273534 1.731820
H 6.003617 -2.580489 0.888822
H 5.471885 -0.907988 1.144215