41
H16 C17 S1 N2 O5
C -0.220035 -1.041322 1.351711
N 1.858811 -0.782288 1.141157
C 0.902003 -1.667281 0.467910
C 3.045332 -0.369730 0.402542
C 2.911344 -1.015658 -1.037307
S 1.066107 -1.267880 -1.303775
C 0.895878 -0.066850 1.837025
O 0.960015 0.875065 2.576717
N -1.420972 -0.528733 0.761738
C 3.460347 -0.135965 -2.160019
C 3.628711 -2.371985 -1.034357
O 2.135169 1.770087 -0.020168
C 2.160891 3.210918 -0.035116
C 3.233719 1.145960 0.372365
O 4.285842 1.678396 0.641909
C -3.037332 0.751177 -0.275817
C -3.750808 1.742662 -0.921972
C -5.091688 1.481164 -1.213433
C -5.682752 0.265404 -0.862219
C -4.952284 -0.729280 -0.208276
C -3.626047 -0.459306 0.073747
H -3.285750 2.682523 -1.189833
H -5.684546 2.232557 -1.719909
H -6.724672 0.093083 -1.101404
H -5.403205 -1.673484 0.068227
C -1.615391 0.734891 0.160831
O -0.782167 1.598171 0.054681
C -2.602545 -1.295275 0.747341
O -2.702417 -2.409807 1.208009
H 4.517370 0.075347 -1.981131
H 2.921910 0.807033 -2.239744
H 3.384172 -0.659281 -3.114213
H 3.476699 -2.883373 -1.984789
H 3.273451 -3.022500 -0.233746
H 4.702313 -2.218836 -0.891405
H -0.514275 -1.732939 2.141411
H 1.075010 -2.726747 0.647006
H 3.947994 -0.766067 0.866808
H 1.149451 3.505690 -0.295682
H 2.431522 3.586805 0.950633
H 2.878288 3.565031 -0.775325