41
H16 C17 S1 N2 O5
C -0.350892 -1.440744 0.484218
N 1.678624 -0.914167 0.570262
C 0.801050 -1.215160 -0.555800
C 2.766350 0.006388 0.356256
C 2.270318 1.092954 -0.686815
S 0.839675 0.277153 -1.619390
C 0.670557 -0.884367 1.520597
O 0.667073 -0.587365 2.683189
N -1.622986 -0.806727 0.327631
C 1.762122 2.320459 0.073251
C 3.329070 1.497906 -1.716497
O 5.215560 -0.336354 0.184338
C 5.430351 0.709727 1.155928
C 3.987844 -0.761588 -0.153528
O 3.875557 -1.712862 -0.884819
C -3.859144 -0.536811 -0.186295
C -5.172577 -0.697200 -0.586074
C -6.012691 0.414107 -0.484553
C -5.539039 1.634280 0.002596
C -4.209618 1.783927 0.404853
C -3.387273 0.678509 0.299105
H -5.532235 -1.646353 -0.961642
H -7.048658 0.329982 -0.788110
H -6.215167 2.477484 0.068990
H -3.835186 2.725746 0.784436
C -2.738620 -1.509200 -0.171450
O -2.724014 -2.671905 -0.503550
C -1.948553 0.526871 0.640147
O -1.190090 1.343726 1.102966
H 2.601249 2.824909 0.562521
H 1.024190 2.047271 0.824088
H 1.298353 3.028814 -0.614650
H 2.906286 2.220295 -2.416042
H 3.691254 0.644890 -2.288857
H 4.176873 1.982197 -1.226125
H -0.529027 -2.506259 0.632347
H 1.086246 -2.090410 -1.132015
H 2.973449 0.494205 1.305517
H 5.059317 0.408416 2.135540
H 6.508069 0.838394 1.199171
H 4.969276 1.646456 0.844003