41
H16 C17 S1 N2 O5
C -0.360794 -1.396295 0.495979
N 1.645070 -0.807791 0.685543
C 0.819023 -1.081846 -0.486461
C 2.711980 0.150476 0.539389
C 2.193388 1.283985 -0.433412
S 0.846991 0.460483 -1.479599
C 0.600735 -0.853089 1.595843
O 0.540826 -0.613019 2.769874
N -1.651797 -0.808665 0.313082
C 1.589933 2.418208 0.397665
C 3.268398 1.826871 -1.376938
O 5.064783 0.080195 0.441023
C 6.320291 -0.435412 -0.059780
C 3.961921 -0.541920 0.012534
O 3.954372 -1.504351 -0.715353
C -3.480103 0.597012 0.271319
C -4.357903 1.657024 0.394544
C -5.656651 1.472508 -0.085870
C -6.046868 0.263078 -0.665106
C -5.151228 -0.802212 -0.783503
C -3.868857 -0.607553 -0.305565
H -4.048007 2.590721 0.845616
H -6.374276 2.279747 -0.008631
H -7.060966 0.151093 -1.027826
H -5.446242 -1.742755 -1.230333
C -2.054777 0.489631 0.679954
O -1.361168 1.311783 1.226824
C -2.705700 -1.528370 -0.284885
O -2.619107 -2.667627 -0.681835
H 1.108014 3.150719 -0.251549
H 2.384715 2.924792 0.953572
H 0.844653 2.048537 1.098005
H 2.841473 2.594367 -2.024123
H 3.688735 1.046551 -2.011646
H 4.073819 2.285227 -0.799069
H -0.500241 -2.473750 0.590172
H 1.154682 -1.918706 -1.092101
H 2.935618 0.587243 1.511676
H 6.442128 -1.475853 0.237710
H 6.347356 -0.358753 -1.146153
H 7.087817 0.187261 0.390077