41
H16 C17 S1 N2 O5
C -0.250321 -1.245114 0.716684
N 1.721780 -0.539994 0.875992
C 0.942451 -1.000737 -0.270040
C 2.741451 0.454588 0.640933
C 2.211341 1.413202 -0.498685
S 0.931783 0.397035 -1.456355
C 0.653377 -0.524325 1.761184
O 0.549350 -0.144772 2.894097
N -1.559543 -0.745695 0.431192
C 1.534769 2.626487 0.143514
C 3.301784 1.862984 -1.472836
O 3.968924 -1.260464 -0.450700
C 5.202138 -1.898702 -0.854778
C 4.091351 -0.166769 0.306235
O 5.143471 0.306749 0.662114
C -3.763172 -0.726346 -0.262549
C -5.020920 -1.038525 -0.743531
C -5.963829 -0.008833 -0.785259
C -5.642793 1.280968 -0.356470
C -4.368294 1.584220 0.128578
C -3.443383 0.558310 0.164545
H -5.262019 -2.040752 -1.073272
H -6.960694 -0.212124 -1.155956
H -6.395797 2.057826 -0.401423
H -4.111685 2.580864 0.463394
C -2.563265 -1.582664 -0.095909
O -2.415945 -2.757601 -0.343150
C -2.027877 0.569335 0.618211
O -1.385839 1.485215 1.070774
H 2.289505 3.242177 0.641614
H 0.782952 2.326664 0.870003
H 1.045092 3.236400 -0.617188
H 2.877615 2.527292 -2.227006
H 3.764925 1.021025 -1.987168
H 4.075283 2.416364 -0.935322
H -0.346023 -2.307720 0.942609
H 1.331243 -1.893120 -0.752631
H 2.888392 1.031235 1.552653
H 5.808412 -1.204806 -1.435620
H 5.758116 -2.225390 0.022837
H 4.901647 -2.748813 -1.459923