41
H16 C17 S1 N2 O5
C 0.330209 -0.146184 -1.700263
N -1.725319 -0.262363 -1.259819
C -0.674310 -1.273024 -1.308706
C -2.849801 -0.646503 -0.424273
C -2.264691 -1.268425 0.902175
S -0.638204 -2.059518 0.351791
C -0.868009 0.821280 -1.468969
O -1.019670 2.004024 -1.571710
N 1.531668 0.044884 -0.946018
C -1.979934 -0.213056 1.971869
C -3.198685 -2.352875 1.438271
O -3.402500 1.633026 -0.036539
C -4.331311 2.685447 0.306732
C -3.899011 0.408096 -0.118798
O -5.054828 0.110475 0.080741
C 3.095523 0.618664 0.648626
C 3.762324 1.102769 1.757740
C 5.136081 0.860940 1.835555
C 5.803315 0.158674 0.829623
C 5.118966 -0.325691 -0.287708
C 3.760164 -0.081140 -0.353373
H 3.238027 1.646532 2.532809
H 5.694488 1.223262 2.689646
H 6.868788 -0.012413 0.918980
H 5.628886 -0.870388 -1.071670
C 1.656677 0.711541 0.287132
O 0.757362 1.247789 0.887867
C 2.768728 -0.459572 -1.390902
O 2.928834 -1.072649 -2.421454
H -2.919020 0.185241 2.366938
H -1.383853 0.606474 1.579402
H -1.435900 -0.665293 2.802065
H -2.779817 -2.811056 2.335539
H -3.370452 -3.135409 0.698409
H -4.160159 -1.906106 1.703035
H 0.605003 -0.207238 -2.753276
H -0.819158 -2.034511 -2.073131
H -3.380773 -1.440308 -0.951424
H -5.140441 2.722308 -0.421177
H -4.739190 2.510474 1.301735
H -3.746568 3.599753 0.282836