41
H16 C17 S1 N2 O5
C -0.540755 0.768119 0.653042
N 1.330845 -0.153338 0.341559
C 0.554610 0.800677 -0.456905
C 2.765731 0.015680 0.431840
C 3.154476 1.188609 -0.545226
S 1.626536 2.280923 -0.569372
C 0.418579 -0.218333 1.373952
O 0.451386 -0.760327 2.447046
N -1.876697 0.370531 0.338720
C 4.332851 1.995653 -0.005321
C 3.442273 0.683228 -1.963872
O 4.779536 -1.183175 0.540840
C 5.631136 -2.315794 0.252035
C 3.518767 -1.267955 0.095275
O 3.064361 -2.209625 -0.501100
C -3.716181 -0.853939 -0.319926
C -4.586137 -1.823429 -0.781076
C -5.946883 -1.507382 -0.799009
C -6.403691 -0.260350 -0.367629
C -5.515286 0.712745 0.096668
C -4.171663 0.389635 0.110509
H -4.224244 -2.787955 -1.112730
H -6.660740 -2.240818 -1.152532
H -7.464713 -0.045806 -0.393487
H -5.861997 1.681071 0.433477
C -2.237357 -0.885295 -0.180418
O -1.453935 -1.767495 -0.442393
C -3.000116 1.195718 0.540216
O -2.958867 2.322443 0.976397
H 4.562598 2.828468 -0.672057
H 5.214873 1.355561 0.054124
H 4.123083 2.391150 0.989259
H 3.590157 1.529313 -2.634203
H 2.628127 0.070869 -2.352451
H 4.354470 0.080448 -1.975745
H -0.590582 1.707809 1.201833
H 0.248744 0.429143 -1.432342
H 3.029796 0.298163 1.452915
H 5.708209 -2.460889 -0.824940
H 6.598405 -2.065923 0.677950
H 5.225508 -3.214452 0.714508