41
H16 C17 S1 N2 O5
C 0.245823 0.318461 0.323418
N -1.412736 -0.295982 -0.818200
C -0.676997 -0.935208 0.281234
C -2.859829 -0.421905 -0.863832
C -3.232950 -1.456860 0.264334
S -1.919594 -1.225678 1.587869
C -0.592976 0.815012 -0.883415
O -0.603206 1.792838 -1.582418
N 1.662627 0.178391 0.203598
C -4.608575 -1.212767 0.880896
C -3.150984 -2.873485 -0.317612
O -3.062602 1.677053 0.244471
C -3.697600 2.957145 0.462089
C -3.592708 0.909619 -0.705593
O -4.573733 1.190245 -1.351897
C 3.926327 0.346860 0.609777
C 5.179625 0.606324 1.130870
C 6.283215 0.166089 0.395817
C 6.120447 -0.508548 -0.815777
C 4.848557 -0.766313 -1.333294
C 3.764067 -0.326363 -0.598641
H 5.298014 1.130464 2.070302
H 7.282242 0.350880 0.770328
H 6.995728 -0.836190 -1.362589
H 4.714630 -1.287632 -2.272214
C 2.581249 0.682440 1.144638
O 2.278929 1.260717 2.162093
C 2.309530 -0.444498 -0.876149
O 1.738403 -0.960887 -1.809141
H -5.376495 -1.265164 0.106139
H -4.672270 -0.240011 1.368702
H -4.826054 -1.982754 1.622352
H -3.307645 -3.613728 0.466895
H -2.184781 -3.067053 -0.785908
H -3.926374 -3.004258 -1.077715
H 0.035967 0.943243 1.191087
H -0.171840 -1.853161 -0.010996
H -3.192259 -0.826218 -1.819930
H -4.737319 2.813389 0.753206
H -3.132641 3.425825 1.262189
H -3.647905 3.553845 -0.447525