41
H16 C17 S1 N2 O5
C 0.344033 -0.888602 0.259362
N -1.440396 0.157185 0.654852
C -0.782584 -0.223021 -0.596037
C -2.878938 0.065021 0.727284
C -3.282227 -1.186991 -0.139628
S -1.997659 -1.250332 -1.515422
C -0.482287 -0.401741 1.480535
O -0.402074 -0.504526 2.675950
N 1.704507 -0.476431 0.110273
C -3.181532 -2.445746 0.728750
C -4.671131 -1.078035 -0.767300
O -2.922038 1.974015 -0.685077
C -3.530327 3.185412 -1.188324
C -3.578794 1.346122 0.290966
O -4.625326 1.717346 0.766390
C 3.627999 0.793760 0.059943
C 4.567635 1.805834 0.106056
C 5.897240 1.457994 -0.145167
C 6.256225 0.139318 -0.431298
C 5.297873 -0.876345 -0.475753
C 3.985945 -0.521514 -0.225435
H 4.281814 2.825403 0.329822
H 6.663523 2.222502 -0.117053
H 7.295433 -0.098536 -0.620836
H 5.568690 -1.900826 -0.695687
C 2.159638 0.841603 0.279876
O 1.447010 1.781806 0.546362
C 2.758731 -1.358697 -0.197682
O 2.631284 -2.545206 -0.389521
H -2.211714 -2.524959 1.221162
H -3.322814 -3.338786 0.119594
H -3.955883 -2.427130 1.501013
H -4.753627 -0.219740 -1.433834
H -5.425132 -0.982204 0.016886
H -4.895294 -1.977718 -1.342404
H 0.313485 -1.975409 0.192799
H -0.464192 0.616105 -1.208844
H -3.172828 -0.105915 1.762130
H -2.859949 3.543155 -1.964003
H -4.515215 2.965421 -1.598455
H -3.620764 3.917518 -0.387188