41
H16 C17 S1 N2 O5
C 0.271222 -0.772669 0.452055
N -1.516298 0.323861 0.269530
C -0.790131 -0.533070 -0.674078
C -2.966642 0.256339 0.257171
C -3.323747 -1.240131 -0.019997
S -1.964054 -1.857283 -1.167715
C -0.624164 0.157775 1.313499
O -0.628959 0.558437 2.446906
N 1.639754 -0.426313 0.233365
C -3.253927 -2.002788 1.312130
C -4.689292 -1.467503 -0.668819
O -3.520985 2.577597 -0.346948
C -3.158890 2.988528 0.990686
C -3.446299 1.301688 -0.762061
O -3.700063 1.051139 -1.912317
C 3.934088 -0.558909 0.044958
C 5.255548 -0.961296 0.007292
C 6.212388 0.008643 -0.302057
C 5.842758 1.329917 -0.561385
C 4.503669 1.726259 -0.520269
C 3.565505 0.759245 -0.213538
H 5.534456 -1.987196 0.209717
H 7.258660 -0.267332 -0.341696
H 6.608047 2.058370 -0.798189
H 4.209515 2.748498 -0.719645
C 2.705765 -1.341980 0.337204
O 2.584267 -2.512470 0.611878
C 2.088942 0.863904 -0.094235
O 1.364930 1.822310 -0.237198
H -2.315194 -1.833530 1.839960
H -3.348825 -3.074043 1.135822
H -4.073192 -1.687887 1.965562
H -4.747437 -1.033853 -1.661964
H -5.466979 -1.019771 -0.043275
H -4.895078 -2.537488 -0.731303
H 0.235751 -1.793545 0.830314
H -0.412925 -0.017812 -1.554263
H -3.330989 0.517033 1.249828
H -2.138196 2.694380 1.230366
H -3.235871 4.072132 0.981028
H -3.857233 2.583495 1.723687