33
Mg1 H20 C8 O4
Mg 15.301526 13.782273 31.372040
O 15.826193 14.010047 29.407206
C 15.064743 13.605840 28.260027
C 16.609873 15.188348 29.170394
C 17.568394 15.333496 30.321768
O 16.823003 15.136359 31.532782
C 17.525443 15.564546 32.709190
H 14.475278 12.740273 28.548804
H 15.745555 13.341015 27.451357
H 15.936387 16.047037 29.095868
H 17.163025 15.082266 28.235794
H 18.003526 16.334310 30.318796
H 18.369103 14.590836 30.275746
H 18.506895 15.088396 32.748771
H 16.932446 15.266649 33.571724
H 17.637961 16.648370 32.689531
H 14.409818 14.420230 27.944915
O 16.105546 12.010129 32.041330
C 17.510623 11.749440 32.175017
C 15.375023 10.885239 31.529793
C 13.909837 11.225181 31.604605
O 13.738213 12.521961 31.010593
C 12.363793 12.862376 30.773298
H 17.950711 11.562043 31.193604
H 17.657549 10.886285 32.823852
H 15.586138 10.003682 32.137283
H 15.690330 10.697094 30.498938
H 13.557901 11.258645 32.638802
H 13.327814 10.489286 31.047482
H 11.816718 12.885873 31.716661
H 11.922873 12.125113 30.102350
H 12.346044 13.843245 30.303522
H 17.964018 12.626919 32.630156