40
H24 C8 S4 O4
S 0.094405 1.604419 -0.218344
O 0.290629 2.377876 1.048252
C -1.579428 0.981866 -0.185190
C 0.915352 0.035934 0.012120
H -2.247884 1.840140 -0.242917
H -1.729759 0.432006 0.745287
H -1.736151 0.338033 -1.051375
H 0.746792 -0.587634 -0.866178
H 0.514483 -0.436190 0.911134
H 1.979839 0.240595 0.117089
S -0.421116 -1.206285 4.006300
O -1.091451 -0.769543 2.733592
C 0.865417 -0.011921 4.322646
C 0.610564 -2.593824 3.576663
H 0.379414 0.935682 4.550608
H 1.492668 0.087969 3.436339
H 1.452448 -0.339260 5.180762
H 1.172699 -2.903956 4.457696
H 1.283403 -2.307437 2.767440
H -0.063903 -3.389371 3.255600
O -2.034407 -4.333294 2.477732
S -3.207865 -3.436775 2.729921
H -2.608738 -1.843618 1.132801
C -3.465814 -2.508927 1.229017
H -3.527300 -3.197546 0.385937
C -4.657299 -4.473332 2.628855
H -4.620448 -5.163347 3.470211
H -4.643245 -5.022039 1.686944
H -4.381565 -1.922824 1.318072
H -5.548943 -3.850604 2.703498
O -5.433081 2.187373 2.827466
H -2.687962 3.035173 2.373671
S -4.257990 1.295257 2.577088
C -2.804676 2.204222 3.068149
H -2.941581 2.575266 4.084567
C -4.231847 0.092372 3.893850
H -4.250475 0.606974 4.855175
H -5.118454 -0.531172 3.783041
H -1.941720 1.540007 2.998560
H -3.330180 -0.513164 3.785253