19
Mg1 H12 O6
Mg 0.765409 -1.373404 0.373975
H 3.404296 -1.066965 1.028315
H 1.264985 1.292237 0.053131
H -1.873478 -1.679853 -0.280365
H 0.912195 -1.823687 3.068435
H 1.811620 -3.905953 0.615884
H 0.772650 -2.459728 -2.151516
O 0.678365 -1.631411 -1.673343
H 0.618618 -0.923120 -2.320485
O 0.989686 -3.408514 0.642701
H 0.265834 -4.039045 0.694821
O 0.852458 -1.115395 2.421293
H 0.758161 -0.287079 2.899465
O -1.281989 -1.622705 0.475490
H -1.822006 -1.507726 1.262473
O 0.541132 0.661707 0.105246
H -0.280802 1.159146 0.132074
O 2.812807 -1.124097 0.272459
H 3.352824 -1.239089 -0.514521