18
H12 O6
O -0.642673 0.872213 -0.292846
H -0.548920 -0.083386 -0.280773
H -1.609827 1.054257 -0.284133
O -3.267534 1.580413 0.009832
H -3.581984 0.957730 0.693913
H -3.129661 2.412553 0.499116
O -2.564996 3.720344 1.746164
H -1.617103 3.509407 1.717714
H -2.844887 3.301707 2.571596
H 0.781900 2.470062 2.144921
O -0.139062 2.260702 1.973779
H -0.170943 1.705524 1.161411
H -3.285342 0.459264 2.834285
O -3.833526 -0.045220 2.202225
H -4.722751 -0.045635 2.564539
H -1.326587 1.713836 3.250599
H -1.986647 1.465189 4.638671
O -2.182437 1.602308 3.708717